NOVO24/1726532/Chaves.dss
! ==========================================================
! CHAVES — geradas de UNSEMT (Line com Switch=Y)
! ==========================================================
! 14 chave(s) omitida(s): os dois PACs fora da rede de MT deste alimentador, o que criaria ilha flutuante — ex.: 984691646, 1532090901, 2641025618
New Line.1918658005 Phases=1 Bus1=node_2699891255.1 Bus2=node_2699891256.1 Switch=Y r1=1e-4 x1=1e-4 r0=1e-4 x0=1e-4 normamps=9999
New Line.1958111252 Phases=1 Bus1=node_2275609638.1 Bus2=node_2275609639.1 Switch=Y r1=1e-4 x1=1e-4 r0=1e-4 x0=1e-4 normamps=9999
New Line.1893855839 Phases=1 Bus1=node_2214244117.2 Bus2=node_2214244118.2 Switch=Y r1=1e-4 x1=1e-4 r0=1e-4 x0=1e-4 normamps=9999
New Line.341091063 Phases=3 Bus1=node_534651894.1.2.3 Bus2=node_534651895.1.2.3 Switch=Y r1=1e-4 x1=1e-4 r0=1e-4 x0=1e-4 normamps=9999
New Line.338591039 Phases=3 Bus1=node_533190807.1.2.3 Bus2=node_533190808.1.2.3 Switch=Y r1=1e-4 x1=1e-4 r0=1e-4 x0=1e-4 normamps=9999
New Line.1800015201 Phases=1 Bus1=node_1450753984.1 Bus2=node_2123946241.1 Switch=Y r1=1e-4 x1=1e-4 r0=1e-4 x0=1e-4 normamps=9999
New Line.1856897773 Phases=3 Bus1=100_1856897815.1.2.3 Bus2=100_1856897814.1.2.3 Switch=Y r1=1e-4 x1=1e-4 r0=1e-4 x0=1e-4 normamps=9999
New Line.1965329511 Phases=1 Bus1=node_2283424734.1 Bus2=node_2283424822.1 Switch=Y r1=1e-4 x1=1e-4 r0=1e-4 x0=1e-4 normamps=9999
New Line.1791602869 Phases=1 Bus1=node_2116190737.1 Bus2=node_2116190738.1 Switch=Y r1=1e-4 x1=1e-4 r0=1e-4 x0=1e-4 normamps=9999
New Line.1856897797 Phases=3 Bus1=100_1856897815.1.2.3 Bus2=segm_1856897809.1.2.3 Switch=Y r1=1e-4 x1=1e-4 r0=1e-4 x0=1e-4 normamps=9999
New Line.349382889 Phases=1 Bus1=100_349382902.2 Bus2=100_349382903.2 Switch=Y r1=1e-4 x1=1e-4 r0=1e-4 x0=1e-4 normamps=9999
New Line.343432683 Phases=3 Bus1=node_2177633826.1.2.3 Bus2=node_2177633827.1.2.3 Switch=Y r1=1e-4 x1=1e-4 r0=1e-4 x0=1e-4 normamps=9999
New Line.1883232526 Phases=1 Bus1=node_2204449572.1 Bus2=node_2204449573.1 Switch=Y r1=1e-4 x1=1e-4 r0=1e-4 x0=1e-4 normamps=9999
New Line.1884181476 Phases=1 Bus1=node_432479941.3 Bus2=node_2177264228.3 Switch=Y r1=1e-4 x1=1e-4 r0=1e-4 x0=1e-4 normamps=9999
New Line.1464245424 Phases=1 Bus1=100_1464245457.1 Bus2=100_1464245458.1 Switch=Y r1=1e-4 x1=1e-4 r0=1e-4 x0=1e-4 normamps=9999
New Line.349382919 Phases=1 Bus1=100_349382932.1 Bus2=100_349382933.1 Switch=Y r1=1e-4 x1=1e-4 r0=1e-4 x0=1e-4 normamps=9999
New Line.1350454459 Phases=1 Bus1=node_1644533441.3 Bus2=node_1644533442.3 Switch=Y r1=1e-4 x1=1e-4 r0=1e-4 x0=1e-4 normamps=9999
New Line.1463640008 Phases=1 Bus1=100_1463640043.1 Bus2=100_1463640044.1 Switch=Y r1=1e-4 x1=1e-4 r0=1e-4 x0=1e-4 normamps=9999
New Line.1448735555 Phases=1 Bus1=100_1448735587.1 Bus2=100_1448735586.1 Switch=Y r1=1e-4 x1=1e-4 r0=1e-4 x0=1e-4 normamps=9999
New Line.1375943654 Phases=1 Bus1=node_1670585168.3 Bus2=node_1670585169.3 Switch=Y r1=1e-4 x1=1e-4 r0=1e-4 x0=1e-4 normamps=9999
New Line.1431404983 Phases=1 Bus1=node_1727712570.1 Bus2=node_1727712571.1 Switch=Y r1=1e-4 x1=1e-4 r0=1e-4 x0=1e-4 normamps=9999
New Line.1219058078 Phases=1 Bus1=node_1517521249.2 Bus2=node_1517521250.2 Switch=Y r1=1e-4 x1=1e-4 r0=1e-4 x0=1e-4 normamps=9999
New Line.1445540810 Phases=1 Bus1=node_1741848388.1 Bus2=node_1741848389.1 Switch=Y r1=1e-4 x1=1e-4 r0=1e-4 x0=1e-4 normamps=9999
New Line.1318318263 Phases=1 Bus1=node_1615553438.1 Bus2=node_1615553439.1 Switch=Y r1=1e-4 x1=1e-4 r0=1e-4 x0=1e-4 normamps=9999
New Line.1359038622 Phases=1 Bus1=node_1653555403.2 Bus2=node_1653555404.2 Switch=Y r1=1e-4 x1=1e-4 r0=1e-4 x0=1e-4 normamps=9999
New Line.1332776544 Phases=1 Bus1=node_1628393274.1 Bus2=node_1628393275.1 Switch=Y r1=1e-4 x1=1e-4 r0=1e-4 x0=1e-4 normamps=9999
New Line.1371581091 Phases=1 Bus1=node_1666171094.2 Bus2=node_1666171095.2 Switch=Y r1=1e-4 x1=1e-4 r0=1e-4 x0=1e-4 normamps=9999
New Line.1341063477 Phases=1 Bus1=node_1635606215.1 Bus2=node_1635606216.1 Switch=Y r1=1e-4 x1=1e-4 r0=1e-4 x0=1e-4 normamps=9999
New Line.343914683 Phases=1 Bus1=node_538335300.3 Bus2=node_538335301.3 Switch=Y r1=1e-4 x1=1e-4 r0=1e-4 x0=1e-4 normamps=9999
New Line.1547351562 Phases=1 Bus1=node_1971001862.2 Bus2=node_1971001861.2 Switch=Y r1=1e-4 x1=1e-4 r0=1e-4 x0=1e-4 normamps=9999
New Line.349383509 Phases=1 Bus1=100_349383522.2 Bus2=100_349383523.2 Switch=Y r1=1e-4 x1=1e-4 r0=1e-4 x0=1e-4 normamps=9999
New Line.1416539226 Phases=1 Bus1=node_1713688483.3 Bus2=node_1713688484.3 Switch=Y r1=1e-4 x1=1e-4 r0=1e-4 x0=1e-4 normamps=9999
New Line.339116600 Phases=1 Bus1=100_1516868423.1 Bus2=100_1516868422.1 Switch=Y r1=1e-4 x1=1e-4 r0=1e-4 x0=1e-4 normamps=9999
New Line.349376845 Phases=1 Bus1=100_349376858.3 Bus2=100_349376859.3 Switch=Y r1=1e-4 x1=1e-4 r0=1e-4 x0=1e-4 normamps=9999
New Line.342027244 Phases=1 Bus1=100_1498065072.3 Bus2=100_1498065071.3 Switch=Y r1=1e-4 x1=1e-4 r0=1e-4 x0=1e-4 normamps=9999
New Line.349382345 Phases=1 Bus1=100_349382358.1 Bus2=100_349382359.1 Switch=Y r1=1e-4 x1=1e-4 r0=1e-4 x0=1e-4 normamps=9999
New Line.2647998297 Phases=1 Bus1=node_2810819067.3 Bus2=node_2810819068.3 Switch=Y r1=1e-4 x1=1e-4 r0=1e-4 x0=1e-4 normamps=9999
New Line.349382869 Phases=3 Bus1=100_349382868.1.2.3 Bus2=100_349382847.1.2.3 Switch=Y r1=1e-4 x1=1e-4 r0=1e-4 x0=1e-4 normamps=9999
New Line.1542121439 Phases=1 Bus1=node_1861509263.1 Bus2=node_1861509264.1 Switch=Y r1=1e-4 x1=1e-4 r0=1e-4 x0=1e-4 normamps=9999
New Line.344021092 Phases=1 Bus1=node_538446222.1 Bus2=node_538446223.1 Switch=Y r1=1e-4 x1=1e-4 r0=1e-4 x0=1e-4 normamps=9999
New Line.1556682392 Phases=1 Bus1=node_1876160362.2 Bus2=node_1876160363.2 Switch=Y r1=1e-4 x1=1e-4 r0=1e-4 x0=1e-4 normamps=9999
New Line.2554597908 Phases=1 Bus1=node_2750237039.1 Bus2=node_2750237040.1 Switch=Y r1=1e-4 x1=1e-4 r0=1e-4 x0=1e-4 normamps=9999
New Line.2610546108 Phases=1 Bus1=node_2764172822.2 Bus2=node_2764172823.2 Switch=Y r1=1e-4 x1=1e-4 r0=1e-4 x0=1e-4 normamps=9999
New Line.2610546119 Phases=1 Bus1=node_2764172854.2 Bus2=node_2764172855.2 Switch=Y r1=1e-4 x1=1e-4 r0=1e-4 x0=1e-4 normamps=9999
New Line.2624810608 Phases=1 Bus1=node_2779721069.1 Bus2=node_2779721070.1 Switch=Y r1=1e-4 x1=1e-4 r0=1e-4 x0=1e-4 normamps=9999
New Line.1551709925 Phases=1 Bus1=node_1871230817.1 Bus2=node_1871230818.1 Switch=Y r1=1e-4 x1=1e-4 r0=1e-4 x0=1e-4 normamps=9999
New Line.1438839541 Phases=1 Bus1=node_1735105817.3 Bus2=node_1735105818.3 Switch=Y r1=1e-4 x1=1e-4 r0=1e-4 x0=1e-4 normamps=9999
New Line.1517325905 Phases=3 Bus1=node_1831996410.1.2.3 Bus2=node_1831996411.1.2.3 Switch=Y r1=1e-4 x1=1e-4 r0=1e-4 x0=1e-4 normamps=9999
New Line.1538913835 Phases=1 Bus1=node_1916987732.2 Bus2=node_1916987733.2 Switch=Y r1=1e-4 x1=1e-4 r0=1e-4 x0=1e-4 normamps=9999
New Line.1532090850 Phases=3 Bus1=100_1532090910.1.2.3 Bus2=segm_1532090838.1.2.3 Switch=Y r1=1e-4 x1=1e-4 r0=1e-4 x0=1e-4 normamps=9999
New Line.1517324426 Phases=3 Bus1=node_1831993641.1.2.3 Bus2=node_1831993642.1.2.3 Switch=Y r1=1e-4 x1=1e-4 r0=1e-4 x0=1e-4 normamps=9999
New Line.1532090894 Phases=3 Bus1=100_1532090911.1.2.3 Bus2=segm_1532090844.1.2.3 Switch=Y r1=1e-4 x1=1e-4 r0=1e-4 x0=1e-4 normamps=9999
New Line.1517325875 Phases=3 Bus1=node_1831996343.1.2.3 Bus2=node_1831996344.1.2.3 Switch=Y r1=1e-4 x1=1e-4 r0=1e-4 x0=1e-4 normamps=9999
New Line.1444239795 Phases=3 Bus1=node_1740564615.1.2.3 Bus2=node_1740564616.1.2.3 Switch=Y r1=1e-4 x1=1e-4 r0=1e-4 x0=1e-4 normamps=9999
New Line.1517325277 Phases=3 Bus1=node_1831995030.1.2.3 Bus2=node_1831995031.1.2.3 Switch=Y r1=1e-4 x1=1e-4 r0=1e-4 x0=1e-4 normamps=9999
New Line.1532090875 Phases=3 Bus1=100_1532090910.1.2.3 Bus2=100_1532090911.1.2.3 Switch=Y r1=1e-4 x1=1e-4 r0=1e-4 x0=1e-4 normamps=9999
New Line.1036645110 Phases=1 Bus1=node_1303204321.1 Bus2=node_1303204322.1 Switch=Y r1=1e-4 x1=1e-4 r0=1e-4 x0=1e-4 normamps=9999
New Line.340188536 Phases=1 Bus1=100_1549369853.2 Bus2=100_1549369854.2 Switch=Y r1=1e-4 x1=1e-4 r0=1e-4 x0=1e-4 normamps=9999
New Line.1597857531 Phases=1 Bus1=node_1855948732.3 Bus2=node_1855948733.3 Switch=Y r1=1e-4 x1=1e-4 r0=1e-4 x0=1e-4 normamps=9999
New Line.1571818715 Phases=1 Bus1=node_1891236519.3 Bus2=node_1891236520.3 Switch=Y r1=1e-4 x1=1e-4 r0=1e-4 x0=1e-4 normamps=9999
New Line.1538605037 Phases=1 Bus1=node_1857503692.2 Bus2=node_1857503693.2 Switch=Y r1=1e-4 x1=1e-4 r0=1e-4 x0=1e-4 normamps=9999
New Line.1600485476 Phases=1 Bus1=node_1920822228.2 Bus2=node_1920822229.2 Switch=Y r1=1e-4 x1=1e-4 r0=1e-4 x0=1e-4 normamps=9999
New Line.349588982 Phases=1 Bus1=100_349589006.1 Bus2=100_349588981.1 Switch=Y r1=1e-4 x1=1e-4 r0=1e-4 x0=1e-4 normamps=9999
New Line.1574841841 Phases=1 Bus1=100_1574841871.1 Bus2=100_1574841872.1 Switch=Y r1=1e-4 x1=1e-4 r0=1e-4 x0=1e-4 normamps=9999
New Line.349383405 Phases=1 Bus1=100_349383419.1 Bus2=100_349383418.1 Switch=Y r1=1e-4 x1=1e-4 r0=1e-4 x0=1e-4 normamps=9999
New Line.349382139 Phases=1 Bus1=100_349382152.3 Bus2=100_349382153.3 Switch=Y r1=1e-4 x1=1e-4 r0=1e-4 x0=1e-4 normamps=9999
New Line.1643824796 Phases=1 Bus1=100_1643824831.3 Bus2=100_1643824830.3 Switch=Y r1=1e-4 x1=1e-4 r0=1e-4 x0=1e-4 normamps=9999
New Line.1553801225 Phases=1 Bus1=node_1873275025.2 Bus2=node_1873275026.2 Switch=Y r1=1e-4 x1=1e-4 r0=1e-4 x0=1e-4 normamps=9999
New Line.339685342 Phases=1 Bus1=node_533966015.3 Bus2=node_533966016.3 Switch=Y r1=1e-4 x1=1e-4 r0=1e-4 x0=1e-4 normamps=9999
New Line.344021265 Phases=1 Bus1=node_538446708.3 Bus2=node_538446707.3 Switch=Y r1=1e-4 x1=1e-4 r0=1e-4 x0=1e-4 normamps=9999
New Line.343570479 Phases=1 Bus1=node_537672337.3 Bus2=node_537672338.3 Switch=Y r1=1e-4 x1=1e-4 r0=1e-4 x0=1e-4 normamps=9999
New Line.340629158 Phases=3 Bus1=node_534452320.1.2.3 Bus2=node_534452321.1.2.3 Switch=Y r1=1e-4 x1=1e-4 r0=1e-4 x0=1e-4 normamps=9999
New Line.340629366 Phases=3 Bus1=node_534543102.1.2.3 Bus2=node_534543103.1.2.3 Switch=Y r1=1e-4 x1=1e-4 r0=1e-4 x0=1e-4 normamps=9999
New Line.2401299314 Phases=3 Bus1=segm_2401299287.1.2.3 Bus2=100_2401299366.1.2.3 Switch=Y r1=1e-4 x1=1e-4 r0=1e-4 x0=1e-4 normamps=9999
New Line.2593704852 Phases=3 Bus1=100_2593704894.1.2.3 Bus2=100_2593704893.1.2.3 Switch=Y r1=1e-4 x1=1e-4 r0=1e-4 x0=1e-4 normamps=9999
New Line.341405849 Phases=1 Bus1=node_535034182.3 Bus2=node_535034183.3 Switch=Y r1=1e-4 x1=1e-4 r0=1e-4 x0=1e-4 normamps=9999
New Line.339685456 Phases=1 Bus1=node_533966360.3 Bus2=node_533966359.3 Switch=Y r1=1e-4 x1=1e-4 r0=1e-4 x0=1e-4 normamps=9999
New Line.342749798 Phases=1 Bus1=node_536750545.1 Bus2=node_536750546.1 Switch=Y r1=1e-4 x1=1e-4 r0=1e-4 x0=1e-4 normamps=9999
New Line.343272494 Phases=1 Bus1=node_537167742.3 Bus2=node_537167743.3 Switch=Y r1=1e-4 x1=1e-4 r0=1e-4 x0=1e-4 normamps=9999
New Line.341405843 Phases=1 Bus1=node_535034164.3 Bus2=node_535034165.3 Switch=Y r1=1e-4 x1=1e-4 r0=1e-4 x0=1e-4 normamps=9999
New Line.344468408 Phases=1 Bus1=node_538704607.3 Bus2=node_538704608.3 Switch=Y r1=1e-4 x1=1e-4 r0=1e-4 x0=1e-4 normamps=9999
New Line.343745049 Phases=1 Bus1=node_537967663.3 Bus2=node_537967664.3 Switch=Y r1=1e-4 x1=1e-4 r0=1e-4 x0=1e-4 normamps=9999
New Line.340629844 Phases=1 Bus1=node_534544424.2 Bus2=node_534544425.2 Switch=Y r1=1e-4 x1=1e-4 r0=1e-4 x0=1e-4 normamps=9999
New Line.343570557 Phases=1 Bus1=node_537672549.1 Bus2=node_537672550.1 Switch=Y r1=1e-4 x1=1e-4 r0=1e-4 x0=1e-4 normamps=9999
New Line.340187936 Phases=1 Bus1=node_533966593.3 Bus2=node_533966594.3 Switch=Y r1=1e-4 x1=1e-4 r0=1e-4 x0=1e-4 normamps=9999
New Line.343272165 Phases=1 Bus1=node_537166815.3 Bus2=node_537166816.3 Switch=Y r1=1e-4 x1=1e-4 r0=1e-4 x0=1e-4 normamps=9999
New Line.340187948 Phases=1 Bus1=node_533966630.1 Bus2=node_533966629.1 Switch=Y r1=1e-4 x1=1e-4 r0=1e-4 x0=1e-4 normamps=9999
New Line.2208674813 Phases=1 Bus1=node_2514149996.2 Bus2=node_2514150202.2 Switch=Y r1=1e-4 x1=1e-4 r0=1e-4 x0=1e-4 normamps=9999
New Line.341405356 Phases=1 Bus1=node_535032725.1 Bus2=node_535032726.1 Switch=Y r1=1e-4 x1=1e-4 r0=1e-4 x0=1e-4 normamps=9999
New Line.343272669 Phases=1 Bus1=node_537168227.2 Bus2=node_537168228.2 Switch=Y r1=1e-4 x1=1e-4 r0=1e-4 x0=1e-4 normamps=9999
New Line.342451287 Phases=1 Bus1=node_536228800.1 Bus2=node_536228801.1 Switch=Y r1=1e-4 x1=1e-4 r0=1e-4 x0=1e-4 normamps=9999
New Line.340629352 Phases=1 Bus1=node_534543066.2 Bus2=node_534543067.2 Switch=Y r1=1e-4 x1=1e-4 r0=1e-4 x0=1e-4 normamps=9999
New Line.342026800 Phases=3 Bus1=node_535625803.1.2.3 Bus2=node_535625804.1.2.3 Switch=Y r1=1e-4 x1=1e-4 r0=1e-4 x0=1e-4 normamps=9999
New Line.340629182 Phases=1 Bus1=node_534452380.2 Bus2=node_534452381.2 Switch=Y r1=1e-4 x1=1e-4 r0=1e-4 x0=1e-4 normamps=9999
New Line.342027333 Phases=1 Bus1=node_535627326.1 Bus2=node_535627327.1 Switch=Y r1=1e-4 x1=1e-4 r0=1e-4 x0=1e-4 normamps=9999
New Line.339685443 Phases=1 Bus1=node_533966318.2 Bus2=node_533966319.2 Switch=Y r1=1e-4 x1=1e-4 r0=1e-4 x0=1e-4 normamps=9999
New Line.339117439 Phases=3 Bus1=node_533528916.1.2.3 Bus2=node_533528917.1.2.3 Switch=Y r1=1e-4 x1=1e-4 r0=1e-4 x0=1e-4 normamps=9999
New Line.340629277 Phases=1 Bus1=node_534452665.3 Bus2=node_534452666.3 Switch=Y r1=1e-4 x1=1e-4 r0=1e-4 x0=1e-4 normamps=9999
New Line.1920912488 Phases=3 Bus1=node_2290050625.1.2.3 Bus2=node_2290050624.1.2.3 Switch=Y r1=1e-4 x1=1e-4 r0=1e-4 x0=1e-4 normamps=9999
New Line.2593704876 Phases=3 Bus1=100_2593704894.1.2.3 Bus2=segm_2593704888.1.2.3 Switch=Y r1=1e-4 x1=1e-4 r0=1e-4 x0=1e-4 normamps=9999
New Line.344021430 Phases=1 Bus1=node_538447180.1 Bus2=node_538447181.1 Switch=Y r1=1e-4 x1=1e-4 r0=1e-4 x0=1e-4 normamps=9999
New Line.341405831 Phases=1 Bus1=node_535034128.3 Bus2=node_535034129.3 Switch=Y r1=1e-4 x1=1e-4 r0=1e-4 x0=1e-4 normamps=9999
New Line.342028956 Phases=3 Bus1=node_2749688677.1.2.3 Bus2=node_2749688678.1.2.3 Switch=Y r1=1e-4 x1=1e-4 r0=1e-4 x0=1e-4 normamps=9999
New Line.339115879 Phases=1 Bus1=node_533413086.2 Bus2=node_533413087.2 Switch=Y r1=1e-4 x1=1e-4 r0=1e-4 x0=1e-4 normamps=9999
New Line.342749935 Phases=1 Bus1=node_536750926.2 Bus2=node_536750927.2 Switch=Y r1=1e-4 x1=1e-4 r0=1e-4 x0=1e-4 normamps=9999
New Line.342991975 Phases=3 Bus1=node_536858285.1.2.3 Bus2=node_536858286.1.2.3 Switch=Y r1=1e-4 x1=1e-4 r0=1e-4 x0=1e-4 normamps=9999
New Line.344468469 Phases=1 Bus1=node_538704790.3 Bus2=node_538704791.3 Switch=Y r1=1e-4 x1=1e-4 r0=1e-4 x0=1e-4 normamps=9999
New Line.344468650 Phases=1 Bus1=node_538705273.3 Bus2=node_538705274.3 Switch=Y r1=1e-4 x1=1e-4 r0=1e-4 x0=1e-4 normamps=9999
New Line.346204172 Phases=1 Bus1=node_540439657.3 Bus2=node_540439658.3 Switch=Y r1=1e-4 x1=1e-4 r0=1e-4 x0=1e-4 normamps=9999
New Line.341807766 Phases=3 Bus1=node_535147551.1.2.3 Bus2=node_535147550.1.2.3 Switch=Y r1=1e-4 x1=1e-4 r0=1e-4 x0=1e-4 normamps=9999
New Line.342232397 Phases=3 Bus1=node_535956557.1.2.3 Bus2=node_535956558.1.2.3 Switch=Y r1=1e-4 x1=1e-4 r0=1e-4 x0=1e-4 normamps=9999
New Line.340190773 Phases=3 Bus1=node_534222602.1.2.3 Bus2=node_534222603.1.2.3 Switch=Y r1=1e-4 x1=1e-4 r0=1e-4 x0=1e-4 normamps=9999
New Line.342231899 Phases=3 Bus1=node_535783846.1.2.3 Bus2=node_535783847.1.2.3 Switch=Y r1=1e-4 x1=1e-4 r0=1e-4 x0=1e-4 normamps=9999
New Line.343431289 Phases=3 Bus1=node_537405845.1.2.3 Bus2=node_537405846.1.2.3 Switch=Y r1=1e-4 x1=1e-4 r0=1e-4 x0=1e-4 normamps=9999
New Line.340188778 Phases=3 Bus1=node_534110553.1.2.3 Bus2=node_534110554.1.2.3 Switch=Y r1=1e-4 x1=1e-4 r0=1e-4 x0=1e-4 normamps=9999
New Line.341090320 Phases=3 Bus1=node_534650236.1.2.3 Bus2=node_534650235.1.2.3 Switch=Y r1=1e-4 x1=1e-4 r0=1e-4 x0=1e-4 normamps=9999
New Line.342750829 Phases=3 Bus1=node_536753380.1.2.3 Bus2=node_536753379.1.2.3 Switch=Y r1=1e-4 x1=1e-4 r0=1e-4 x0=1e-4 normamps=9999
New Line.2401299302 Phases=3 Bus1=100_2401299367.1.2.3 Bus2=100_2401299366.1.2.3 Switch=Y r1=1e-4 x1=1e-4 r0=1e-4 x0=1e-4 normamps=9999
New Line.340190970 Phases=3 Bus1=node_534222947.1.2.3 Bus2=node_534222948.1.2.3 Switch=Y r1=1e-4 x1=1e-4 r0=1e-4 x0=1e-4 normamps=9999
New Line.340189653 Phases=3 Bus1=node_534112994.1.2.3 Bus2=node_534112995.1.2.3 Switch=Y r1=1e-4 x1=1e-4 r0=1e-4 x0=1e-4 normamps=9999
New Line.337345092 Phases=3 Bus1=node_531660685.1.2.3 Bus2=node_531660684.1.2.3 Switch=Y r1=1e-4 x1=1e-4 r0=1e-4 x0=1e-4 normamps=9999
New Line.342452170 Phases=3 Bus1=node_536364301.1.2.3 Bus2=node_536364302.1.2.3 Switch=Y r1=1e-4 x1=1e-4 r0=1e-4 x0=1e-4 normamps=9999
New Line.342027712 Phases=3 Bus1=node_535628331.1.2.3 Bus2=node_535628332.1.2.3 Switch=Y r1=1e-4 x1=1e-4 r0=1e-4 x0=1e-4 normamps=9999
New Line.344208229 Phases=3 Bus1=node_538494793.1.2.3 Bus2=node_538494794.1.2.3 Switch=Y r1=1e-4 x1=1e-4 r0=1e-4 x0=1e-4 normamps=9999
New Line.338591505 Phases=3 Bus1=node_533191725.1.2.3 Bus2=node_533191726.1.2.3 Switch=Y r1=1e-4 x1=1e-4 r0=1e-4 x0=1e-4 normamps=9999
New Line.340189643 Phases=3 Bus1=node_534112976.1.2.3 Bus2=node_534112977.1.2.3 Switch=Y r1=1e-4 x1=1e-4 r0=1e-4 x0=1e-4 normamps=9999
New Line.341406988 Phases=3 Bus1=node_535144682.1.2.3 Bus2=node_535144681.1.2.3 Switch=Y r1=1e-4 x1=1e-4 r0=1e-4 x0=1e-4 normamps=9999
New Line.341807783 Phases=3 Bus1=node_535147590.1.2.3 Bus2=node_535147589.1.2.3 Switch=Y r1=1e-4 x1=1e-4 r0=1e-4 x0=1e-4 normamps=9999
New Line.342028563 Phases=3 Bus1=node_535780846.1.2.3 Bus2=node_535780847.1.2.3 Switch=Y r1=1e-4 x1=1e-4 r0=1e-4 x0=1e-4 normamps=9999
New Line.340630127 Phases=3 Bus1=node_534545174.1.2.3 Bus2=node_534545175.1.2.3 Switch=Y r1=1e-4 x1=1e-4 r0=1e-4 x0=1e-4 normamps=9999
New Line.342751284 Phases=3 Bus1=node_536857700.1.2.3 Bus2=node_536857701.1.2.3 Switch=Y r1=1e-4 x1=1e-4 r0=1e-4 x0=1e-4 normamps=9999
New Line.342453365 Phases=3 Bus1=node_536366782.1.2.3 Bus2=node_536366783.1.2.3 Switch=Y r1=1e-4 x1=1e-4 r0=1e-4 x0=1e-4 normamps=9999
New Line.341090448 Phases=3 Bus1=node_534650575.1.2.3 Bus2=node_534650576.1.2.3 Switch=Y r1=1e-4 x1=1e-4 r0=1e-4 x0=1e-4 normamps=9999
New Line.341090304 Phases=3 Bus1=node_534547144.1.2.3 Bus2=node_534547143.1.2.3 Switch=Y r1=1e-4 x1=1e-4 r0=1e-4 x0=1e-4 normamps=9999
New Line.346203825 Phases=1 Bus1=node_1873275046.2 Bus2=node_1873275047.2 Switch=Y r1=1e-4 x1=1e-4 r0=1e-4 x0=1e-4 normamps=9999
New Line.1636245890 Phases=1 Bus1=100_1636245921.3 Bus2=100_1636245922.3 Switch=Y r1=1e-4 x1=1e-4 r0=1e-4 x0=1e-4 normamps=9999
New Line.1645014326 Phases=1 Bus1=node_1965106431.1 Bus2=node_1965106432.1 Switch=Y r1=1e-4 x1=1e-4 r0=1e-4 x0=1e-4 normamps=9999
New Line.1717136672 Phases=1 Bus1=node_2043176233.2 Bus2=node_2043176234.2 Switch=Y r1=1e-4 x1=1e-4 r0=1e-4 x0=1e-4 normamps=9999
New Line.1891764660 Phases=1 Bus1=100_1891764678.2 Bus2=100_1891764679.2 Switch=Y r1=1e-4 x1=1e-4 r0=1e-4 x0=1e-4 normamps=9999
New Line.341808062 Phases=3 Bus1=node_535148102.1.2.3 Bus2=node_535148103.1.2.3 Switch=Y r1=1e-4 x1=1e-4 r0=1e-4 x0=1e-4 normamps=9999
New Line.341406854 Phases=3 Bus1=node_2761619239.1.2.3 Bus2=node_2761619240.1.2.3 Switch=Y r1=1e-4 x1=1e-4 r0=1e-4 x0=1e-4 normamps=9999
New Line.340189090 Phases=3 Bus1=node_534111433.1.2.3 Bus2=node_534111434.1.2.3 Switch=Y r1=1e-4 x1=1e-4 r0=1e-4 x0=1e-4 normamps=9999
New Line.342232605 Phases=3 Bus1=node_535956917.1.2.3 Bus2=node_535956918.1.2.3 Switch=Y r1=1e-4 x1=1e-4 r0=1e-4 x0=1e-4 normamps=9999
New Line.341808006 Phases=3 Bus1=node_535148004.1.2.3 Bus2=node_535148005.1.2.3 Switch=Y r1=1e-4 x1=1e-4 r0=1e-4 x0=1e-4 normamps=9999
New Line.2593704864 Phases=3 Bus1=segm_2593704837.1.2.3 Bus2=100_2593704893.1.2.3 Switch=Y r1=1e-4 x1=1e-4 r0=1e-4 x0=1e-4 normamps=9999
New Line.342027722 Phases=3 Bus1=node_535628349.1.2.3 Bus2=node_535628350.1.2.3 Switch=Y r1=1e-4 x1=1e-4 r0=1e-4 x0=1e-4 normamps=9999
New Line.342028502 Phases=3 Bus1=node_535780693.1.2.3 Bus2=node_535780694.1.2.3 Switch=Y r1=1e-4 x1=1e-4 r0=1e-4 x0=1e-4 normamps=9999
New Line.340191733 Phases=3 Bus1=node_732266635.1.2.3 Bus2=node_732266636.1.2.3 Switch=Y r1=1e-4 x1=1e-4 r0=1e-4 x0=1e-4 normamps=9999
New Line.338594170 Phases=3 Bus1=node_533309419.1.2.3 Bus2=node_533309420.1.2.3 Switch=Y r1=1e-4 x1=1e-4 r0=1e-4 x0=1e-4 normamps=9999
New Line.2175623848 Phases=1 Bus1=node_2482601973.1 Bus2=node_2482601974.1 Switch=Y r1=1e-4 x1=1e-4 r0=1e-4 x0=1e-4 normamps=9999
New Line.338592417 Phases=3 Bus1=node_533193399.1.2.3 Bus2=node_533193400.1.2.3 Switch=Y r1=1e-4 x1=1e-4 r0=1e-4 x0=1e-4 normamps=9999
New Line.342452245 Phases=3 Bus1=node_536364490.1.2.3 Bus2=node_536364491.1.2.3 Switch=Y r1=1e-4 x1=1e-4 r0=1e-4 x0=1e-4 normamps=9999
New Line.342028341 Phases=3 Bus1=node_535780283.1.2.3 Bus2=node_535780282.1.2.3 Switch=Y r1=1e-4 x1=1e-4 r0=1e-4 x0=1e-4 normamps=9999
New Line.342452228 Phases=3 Bus1=node_536364451.1.2.3 Bus2=node_536364452.1.2.3 Switch=Y r1=1e-4 x1=1e-4 r0=1e-4 x0=1e-4 normamps=9999
New Line.342453375 Phases=3 Bus1=node_536366800.1.2.3 Bus2=node_536366801.1.2.3 Switch=Y r1=1e-4 x1=1e-4 r0=1e-4 x0=1e-4 normamps=9999
New Line.342028331 Phases=3 Bus1=node_535780264.1.2.3 Bus2=node_535780265.1.2.3 Switch=Y r1=1e-4 x1=1e-4 r0=1e-4 x0=1e-4 normamps=9999
New Line.338591754 Phases=3 Bus1=node_533192202.1.2.3 Bus2=node_533192203.1.2.3 Switch=Y r1=1e-4 x1=1e-4 r0=1e-4 x0=1e-4 normamps=9999
New Line.342232407 Phases=3 Bus1=node_535956575.1.2.3 Bus2=node_535956576.1.2.3 Switch=Y r1=1e-4 x1=1e-4 r0=1e-4 x0=1e-4 normamps=9999
New Line.338592226 Phases=3 Bus1=node_533193058.1.2.3 Bus2=node_533193059.1.2.3 Switch=Y r1=1e-4 x1=1e-4 r0=1e-4 x0=1e-4 normamps=9999
New Line.342993510 Phases=3 Bus1=node_536861306.1.2.3 Bus2=node_536861307.1.2.3 Switch=Y r1=1e-4 x1=1e-4 r0=1e-4 x0=1e-4 normamps=9999
New Line.2401299326 Phases=3 Bus1=100_2401299367.1.2.3 Bus2=segm_2401299338.1.2.3 Switch=Y r1=1e-4 x1=1e-4 r0=1e-4 x0=1e-4 normamps=9999
New Line.341405553 Phases=1 Bus1=node_535033294.1 Bus2=node_535033295.1 Switch=Y r1=1e-4 x1=1e-4 r0=1e-4 x0=1e-4 normamps=9999
New Line.343272537 Phases=1 Bus1=node_537167862.1 Bus2=node_537167861.1 Switch=Y r1=1e-4 x1=1e-4 r0=1e-4 x0=1e-4 normamps=9999
New Line.342450914 Phases=3 Bus1=node_536227803.1.2.3 Bus2=node_536227804.1.2.3 Switch=Y r1=1e-4 x1=1e-4 r0=1e-4 x0=1e-4 normamps=9999
New Line.340629920 Phases=1 Bus1=node_534544652.3 Bus2=node_534544653.3 Switch=Y r1=1e-4 x1=1e-4 r0=1e-4 x0=1e-4 normamps=9999
New Line.342451278 Phases=1 Bus1=node_536228772.1 Bus2=node_536228771.1 Switch=Y r1=1e-4 x1=1e-4 r0=1e-4 x0=1e-4 normamps=9999
New Line.340188408 Phases=1 Bus1=node_534109591.1 Bus2=node_534109592.1 Switch=Y r1=1e-4 x1=1e-4 r0=1e-4 x0=1e-4 normamps=9999
New Line.343272531 Phases=1 Bus1=node_537167843.1 Bus2=node_537167844.1 Switch=Y r1=1e-4 x1=1e-4 r0=1e-4 x0=1e-4 normamps=9999
New Line.343272630 Phases=1 Bus1=node_537168110.3 Bus2=node_537168111.3 Switch=Y r1=1e-4 x1=1e-4 r0=1e-4 x0=1e-4 normamps=9999
New Line.343272011 Phases=1 Bus1=node_537076179.2 Bus2=node_537076180.2 Switch=Y r1=1e-4 x1=1e-4 r0=1e-4 x0=1e-4 normamps=9999
New Line.342749805 Phases=1 Bus1=node_536750566.1 Bus2=node_536750567.1 Switch=Y r1=1e-4 x1=1e-4 r0=1e-4 x0=1e-4 normamps=9999
New Line.339116230 Phases=1 Bus1=node_533525693.3 Bus2=node_533525694.3 Switch=Y r1=1e-4 x1=1e-4 r0=1e-4 x0=1e-4 normamps=9999
New Line.343272657 Phases=1 Bus1=node_537168191.3 Bus2=node_537168192.3 Switch=Y r1=1e-4 x1=1e-4 r0=1e-4 x0=1e-4 normamps=9999
New Line.339115957 Phases=1 Bus1=node_533413296.2 Bus2=node_533413297.2 Switch=Y r1=1e-4 x1=1e-4 r0=1e-4 x0=1e-4 normamps=9999
New Line.341405494 Phases=1 Bus1=node_535033129.2 Bus2=node_535033130.2 Switch=Y r1=1e-4 x1=1e-4 r0=1e-4 x0=1e-4 normamps=9999
New Line.340629176 Phases=1 Bus1=node_534452362.3 Bus2=node_534452363.3 Switch=Y r1=1e-4 x1=1e-4 r0=1e-4 x0=1e-4 normamps=9999
New Line.342026794 Phases=1 Bus1=node_535625785.3 Bus2=node_535625786.3 Switch=Y r1=1e-4 x1=1e-4 r0=1e-4 x0=1e-4 normamps=9999
New Line.339115743 Phases=3 Bus1=node_533412726.1.2.3 Bus2=node_533412727.1.2.3 Switch=Y r1=1e-4 x1=1e-4 r0=1e-4 x0=1e-4 normamps=9999
New Line.342236093 Phases=1 Bus1=node_536227438.3 Bus2=node_536227439.3 Switch=Y r1=1e-4 x1=1e-4 r0=1e-4 x0=1e-4 normamps=9999
New Line.343272194 Phases=1 Bus1=node_537166890.3 Bus2=node_537166891.3 Switch=Y r1=1e-4 x1=1e-4 r0=1e-4 x0=1e-4 normamps=9999
New Line.340187895 Phases=1 Bus1=node_2810655676.3 Bus2=node_2810655677.3 Switch=Y r1=1e-4 x1=1e-4 r0=1e-4 x0=1e-4 normamps=9999
New Line.342451203 Phases=1 Bus1=node_536228575.1 Bus2=node_536228574.1 Switch=Y r1=1e-4 x1=1e-4 r0=1e-4 x0=1e-4 normamps=9999
New Line.1140525141 Phases=3 Bus1=node_1410304358.1.2.3 Bus2=node_1410304359.1.2.3 Switch=Y r1=1e-4 x1=1e-4 r0=1e-4 x0=1e-4 normamps=9999
New Line.340629321 Phases=1 Bus1=node_534542973.1 Bus2=node_534542974.1 Switch=Y r1=1e-4 x1=1e-4 r0=1e-4 x0=1e-4 normamps=9999
New Line.340188067 Phases=1 Bus1=node_533966962.3 Bus2=node_533966963.3 Switch=Y r1=1e-4 x1=1e-4 r0=1e-4 x0=1e-4 normamps=9999
New Line.341405915 Phases=1 Bus1=node_535034380.2 Bus2=node_535034381.2 Switch=Y r1=1e-4 x1=1e-4 r0=1e-4 x0=1e-4 normamps=9999
New Line.340188518 Phases=1 Bus1=node_534109899.1 Bus2=node_534109900.1 Switch=Y r1=1e-4 x1=1e-4 r0=1e-4 x0=1e-4 normamps=9999
New Line.346532931 Phases=1 Bus1=node_540876771.1 Bus2=node_540876772.1 Switch=Y r1=1e-4 x1=1e-4 r0=1e-4 x0=1e-4 normamps=9999
New Line.339117335 Phases=3 Bus1=node_533528701.1.2.3 Bus2=node_533528700.1.2.3 Switch=Y r1=1e-4 x1=1e-4 r0=1e-4 x0=1e-4 normamps=9999
New Line.346701571 Phases=1 Bus1=node_541336515.2 Bus2=node_541336516.2 Switch=Y r1=1e-4 x1=1e-4 r0=1e-4 x0=1e-4 normamps=9999
New Line.417913725 Phases=1 Bus1=node_684717207.2 Bus2=node_684717349.2 Switch=Y r1=1e-4 x1=1e-4 r0=1e-4 x0=1e-4 normamps=9999
New Line.500070921 Phases=3 Bus1=100_500070926.1.2.3 Bus2=100_500070927.1.2.3 Switch=Y r1=1e-4 x1=1e-4 r0=1e-4 x0=1e-4 normamps=9999
New Line.500929523 Phases=1 Bus1=node_771151084.2 Bus2=node_771151085.2 Switch=Y r1=1e-4 x1=1e-4 r0=1e-4 x0=1e-4 normamps=9999
New Line.501951479 Phases=1 Bus1=node_772185899.1 Bus2=node_772185900.1 Switch=Y r1=1e-4 x1=1e-4 r0=1e-4 x0=1e-4 normamps=9999
New Line.436841841 Phases=1 Bus1=node_705703047.1 Bus2=node_705703048.1 Switch=Y r1=1e-4 x1=1e-4 r0=1e-4 x0=1e-4 normamps=9999
New Line.349382246 Phases=3 Bus1=100_349382236.1.2.3 Bus2=100_349382215.1.2.3 Switch=Y r1=1e-4 x1=1e-4 r0=1e-4 x0=1e-4 normamps=9999
New Line.346096419 Phases=1 Bus1=node_2726033289.1 Bus2=node_2726033300.1 Switch=Y r1=1e-4 x1=1e-4 r0=1e-4 x0=1e-4 normamps=9999
New Line.465212014 Phases=1 Bus1=node_828733413.1 Bus2=node_828733414.1 Switch=Y r1=1e-4 x1=1e-4 r0=1e-4 x0=1e-4 normamps=9999
New Line.615759660 Phases=1 Bus1=node_883739637.1 Bus2=node_883739691.1 Switch=Y r1=1e-4 x1=1e-4 r0=1e-4 x0=1e-4 normamps=9999
New Line.340629933 Phases=1 Bus1=node_534544691.1 Bus2=node_534544692.1 Switch=Y r1=1e-4 x1=1e-4 r0=1e-4 x0=1e-4 normamps=9999
...
